
**** 06/03/24 14:44:16 ***** PSpice 23.1.0 (6 March 2024) ***** ID# 0 ********

 ** Profile: "SCHEMATIC1-final"  [ c:\users\gh_ev\appdata\roaming\spb_data\cdssetup\workspace\projects\proiectfinalsper\proiectfinals


 ****     CIRCUIT DESCRIPTION


******************************************************************************




** Creating circuit file "final.cir" 
** WARNING: THIS AUTOMATICALLY GENERATED FILE MAY BE OVERWRITTEN BY SUBSEQUENT SIMULATIONS

*Libraries: 
* Profile Libraries :
* Local Libraries :
.LIB "C:/Users/gh_ev/OneDrive/Desktop/fisierled.lib" 
* From [PSPICE NETLIST] section of C:\Users\gh_ev\AppData\Roaming\SPB_Data\cdssetup\OrCAD_PSpice\23.1.0\PSpice.ini file:
.lib "nom.lib" 

*Analysis directives: 
.TRAN  0 1000ns 0 0.1 
.WCASE TRAN V([N30086]) YMAX VARY BOTH  HI 
.OPTIONS ADVCONV
.PROBE64 V(alias(*)) I(alias(*)) W(alias(*)) D(alias(*)) NOISE(alias(*)) 
.INC "..\SCHEMATIC1.net" 



**** INCLUDING SCHEMATIC1.net ****
* source PROIECTFINALSPER
R_R1         SENSOR VCC R_R1 7k TC=0,0 
.model        R_R1 RES R=1 DEV=0.1% TC1=0 TC2=0
V_V13         -VCC 0 -19V
D_D1          ANOD CATOD led_rosu2 
V_V12         VCC 0 19V
R_R10         N30086 N28683 R_R10 1k TC=0,0 
.model        R_R10 RES R=1 DEV=0.1% TC1=0 TC2=0
Q_Q2         CATOD N28683 0 Q2N930
R_R11         ANOD VCC R_R11 850 TC=0,0 
.model        R_R11 RES R=1 DEV=0.1% TC1=0 TC2=0
R_Rs         0 SENSOR R_Rs {sensor} TC=0,0 
.model        R_Rs RES R=1 DEV=0.1% TC1=0 TC2=0
X_U17A         SENSOR N29276 VCC -VCC N29276 UA798
R_R2         N29276 N29441 R_R2 1k TC=0,0 
.model        R_R2 RES R=1 DEV=0.1% TC1=0 TC2=0
R_R3         0 N29441 R_R3 3.4k TC=0,0 
.model        R_R3 RES R=1 DEV=0.1% TC1=0 TC2=0
X_U17B         N29441 N29687 VCC -VCC N29705 UA798
X_U18A         N34215 N29680 VCC -VCC N29680 LM324
R_R6         VCC N34215 R_R6 1k TC=0,0 
.model        R_R6 RES R=1 DEV=0.1% TC1=0 TC2=0
R_R7         0 N34215 R_R7 1k TC=0,0 
.model        R_R7 RES R=1 DEV=0.1% TC1=0 TC2=0
R_R5         N29680 N29687 R_R5 1k TC=0,0 
.model        R_R5 RES R=1 DEV=0.1% TC1=0 TC2=0
R_R4         N29705 N29687 R_R4 3.4k TC=0,0 
.model        R_R4 RES R=1 DEV=0.1% TC1=0 TC2=0
X_U19A         N30063 N30135 VCC -VCC N30086 TL082
R_R8         N29705 N30063 R_R8 1k TC=0,0 
.model        R_R8 RES R=1 DEV=0.1% TC1=0 TC2=0
R_R9         N30063 N30086 R_R9 673 TC=0,0 
.model        R_R9 RES R=1 DEV=0.1% TC1=0 TC2=0
V_V14         N30135 0 0.00597
.PARAM  sensor=7k

**** RESUMING final.cir ****
.END

**** 06/03/24 14:44:16 ***** PSpice 23.1.0 (6 March 2024) ***** ID# 0 ********

 ** Profile: "SCHEMATIC1-final"  [ c:\users\gh_ev\appdata\roaming\spb_data\cdssetup\workspace\projects\proiectfinalsper\proiectfinals


 ****     Diode MODEL PARAMETERS


******************************************************************************




               led_rosu2       X_U17A.dx       X_U17A.dy       X_U17B.dx       
          IS   10.010000E-21  800.000000E-18  800.000000E-18  800.000000E-18 
           N    1.3854                                                       
          RS    1.372100E-03                    1.000000E-03                 
         CJO                                   10.000000E-12                 


               X_U17B.dy       X_U18A.dx       X_U18A.dy       X_U19A.dx       
          IS  800.000000E-18  800.000000E-18  800.000000E-18  800.000000E-18 
          RS    1.000000E-03    1               1.000000E-03                 
         CJO   10.000000E-12                   10.000000E-12                 


               X_U19A.dy       
          IS  800.000000E-18 
          RS    1.000000E-03 
         CJO   10.000000E-12 


**** 06/03/24 14:44:16 ***** PSpice 23.1.0 (6 March 2024) ***** ID# 0 ********

 ** Profile: "SCHEMATIC1-final"  [ c:\users\gh_ev\appdata\roaming\spb_data\cdssetup\workspace\projects\proiectfinalsper\proiectfinals


 ****     BJT MODEL PARAMETERS


******************************************************************************




               Q2N930          X_U17A.qx       X_U17B.qx       X_U18A.qx       
               NPN             PNP             PNP             PNP             
       LEVEL    1               1               1               1            
          IS    5.911000E-15  800.000000E-18  800.000000E-18  800.000000E-18 
          BF  578.3            30              30             166.7          
          NF    1               1               1               1            
         VAF   62.37                                                         
         IKF     .0135                                                       
         ISE    5.911000E-15                                                 
          NE    1.32                                                         
          BR    1.313           1               1               1            
          NR    1               1               1               1            
         ISS    0               0               0               0            
          RB   10                                                            
          RE    0               0               0               0            
          RC    1.61            0               0               0            
         CJE    4.973000E-12    0               0               0            
         VJE     .75             .75             .75             .75         
         MJE     .4146                                                       
         CJC    4.017000E-12    0               0               0            
         VJC     .75             .75             .75             .75         
         MJC     .3174           .33             .33             .33         
        XCJC    1               1               1               1            
         CJS    0               0               0               0            
         VJS     .75             .75             .75             .75         
          TF  819.800000E-12                                                 
         XTF    7                                                            
         VTF    4                                                            
         ITF     .35                                                         
          TR    4.701000E-09                                                 
         XTB    1.5                                                          
          KF    0               0               0               0            
          AF    1               1               1               1            
          CN    2.42            2.2             2.2             2.2          
           D     .87             .52             .52             .52         


**** 06/03/24 14:44:16 ***** PSpice 23.1.0 (6 March 2024) ***** ID# 0 ********

 ** Profile: "SCHEMATIC1-final"  [ c:\users\gh_ev\appdata\roaming\spb_data\cdssetup\workspace\projects\proiectfinalsper\proiectfinals


 ****     Junction FET MODEL PARAMETERS


******************************************************************************




               X_U19A.jx1      X_U19A.jx2      
               NJF             NJF             
         VTO   -1              -1            
        BETA  222.070000E-06  222.070000E-06 
          IS  100.000000E-12  100.000000E-12 


**** 06/03/24 14:44:16 ***** PSpice 23.1.0 (6 March 2024) ***** ID# 0 ********

 ** Profile: "SCHEMATIC1-final"  [ c:\users\gh_ev\appdata\roaming\spb_data\cdssetup\workspace\projects\proiectfinalsper\proiectfinals


 ****     Resistor MODEL PARAMETERS


******************************************************************************




               R_R1            R_R10           R_R11           R_Rs            
           R    1               1               1               1            


               R_R2            R_R3            R_R6            R_R7            
           R    1               1               1               1            


               R_R5            R_R4            R_R8            R_R9            
           R    1               1               1               1            


**** 06/03/24 14:44:16 ***** PSpice 23.1.0 (6 March 2024) ***** ID# 0 ********

 ** Profile: "SCHEMATIC1-final"  [ c:\users\gh_ev\appdata\roaming\spb_data\cdssetup\workspace\projects\proiectfinalsper\proiectfinals


 ****     Current Controlled Switch MODEL PARAMETERS


******************************************************************************




               X_U18A.sw2      X_U18A.sw1      X_U18A.sw3      X_U18A.sw4      
         RON    1               1               1               1            
        ROFF   10.000000E+06   10.000000E+06   10.000000E+06   10.000000E+06 
         ION    0              -1.000000E-06   -1.000000E-06    0            
        IOFF   -1.000000E-06    0               0              -1.000000E-06 


**** 06/03/24 14:44:16 ***** PSpice 23.1.0 (6 March 2024) ***** ID# 0 ********

 ** Profile: "SCHEMATIC1-final"  [ c:\users\gh_ev\appdata\roaming\spb_data\cdssetup\workspace\projects\proiectfinalsper\proiectfinals


 ****     INITIAL TRANSIENT SOLUTION       TEMPERATURE =   27.000 DEG C

                      SENSITIVITY NOMINAL

******************************************************************************



 NODE   VOLTAGE     NODE   VOLTAGE     NODE   VOLTAGE     NODE   VOLTAGE


(  VCC)   19.0000  ( -VCC)  -19.0000  ( ANOD)   19.0000  (CATOD)   18.2110      

(N28683)     .0035 (N29276)    9.4998 (N29441)    7.3408 (N29680)    9.4966     

(N29687)    7.3405 (N29705)     .0097 (N30063)     .0060 (N30086)     .0035     

(N30135)     .0060 (N34215)    9.5000 (SENSOR)    9.5002 (X_U17A.6)-167.6E-06   

(X_U17A.7)   10.0830                  (X_U17A.8)   10.0830                      

(X_U17A.9)    0.0000                  (X_U17B.6) 18.19E-06                      

(X_U17B.7)    -.5715                  (X_U17B.8)    -.5715                      

(X_U17B.9)    0.0000                  (X_U18A.6)    -.0018                      

(X_U18A.7)    9.6044                  (X_U18A.8)    9.6044                      

(X_U18A.9)    0.0000                  (X_U18A.a)   18.9980                      

(X_U18A.b)    -.0022                  (X_U19A.6)-303.1E-09                      

(X_U19A.7)     .0033                  (X_U19A.8)     .0033                      

(X_U19A.9)    0.0000                  (X_U17A.10)   10.0720                     

(X_U17A.11)  -18.9540                 (X_U17A.12)  -18.9550                     

(X_U17A.13)   10.0510                 (X_U17A.14)   10.0510                     

(X_U17A.53)   18.0000                 (X_U17A.54)  -18.0000                     

(X_U17A.90)    2.1590                 (X_U17A.91)   70.0000                     

(X_U17A.92)  -70.0000                 (X_U17A.99)    0.0000                     

(X_U17B.10)    7.9129                 (X_U17B.11)  -18.9540                     

(X_U17B.12)  -18.9540                 (X_U17B.13)    7.8918                     

(X_U17B.14)    7.8919                 (X_U17B.53)   18.0000                     

(X_U17B.54)  -18.0000                 (X_U17B.90)   -2.1524                     

(X_U17B.91)   70.0000                 (X_U17B.92)  -70.0000                     

(X_U17B.99)    0.0000                 (X_U18A.10)   10.1040                     

(X_U18A.11)  -18.9610                 (X_U18A.12)  -18.9640                     

(X_U18A.13)   10.0900                 (X_U18A.14)   10.0910                     

(X_U18A.53)   17.5000                 (X_U18A.54)  -18.1780                     

(X_U18A.90)    2.1560                 (X_U18A.91)   40.0000                     

(X_U18A.92)  -40.0000                 (X_U18A.99)    0.0000                     

(X_U19A.10)     .4052                 (X_U19A.11)   18.5750                     

(X_U19A.12)   18.5750                 (X_U19A.53)   16.6840                     

(X_U19A.54)  -16.6840                 (X_U19A.90)    -.0037                     

(X_U19A.91)   40.0000                 (X_U19A.92)  -40.0000                     

(X_U19A.99)    0.0000                 




    VOLTAGE SOURCE CURRENTS
    NAME         CURRENT

    V_V13        3.814E-02
    V_V12       -5.115E-02
    V_V14        2.190E-10
    X_U17A.vb   -1.676E-09
    X_U17A.vc    8.501E-12
    X_U17A.ve    2.996E-11
    X_U17A.vlim   2.159E-03
    X_U17A.vlp  -6.784E-11
    X_U17A.vln  -7.216E-11
    X_U17B.vb    1.819E-10
    X_U17B.vc    1.799E-11
    X_U17B.ve    2.047E-11
    X_U17B.vlim  -2.152E-03
    X_U17B.vlp  -7.215E-11
    X_U17B.vln  -6.785E-11
    X_U18A.vb   -1.821E-08
    X_U18A.vc    8.004E-12
    X_U18A.ve    3.016E-11
    X_U18A.vlim   2.156E-03
    X_U18A.vlp  -3.784E-11
    X_U18A.vln  -4.216E-11
    X_U19A.vb   -3.031E-12
    X_U19A.vc    1.668E-11
    X_U19A.ve    1.897E-11
    X_U19A.vlim  -3.691E-06
    X_U19A.vlp  -4.000E-11
    X_U19A.vln  -4.000E-11

    TOTAL POWER DISSIPATION   1.70E+00  WATTS

 NODE   VOLTAGE     NODE   VOLTAGE     NODE   VOLTAGE     NODE   VOLTAGE


(  VCC)   19.0000  ( -VCC)  -19.0000  ( ANOD)   19.0000  (CATOD)   18.2110      

(N28683)     .0144 (N29276)    9.4950 (N29441)    7.3371 (N29680)    9.4966     

(N29687)    7.3369 (N29705)    -.0065 (N30063)     .0060 (N30086)     .0144     

(N30135)     .0060 (N34215)    9.5000 (SENSOR)    9.4954 (X_U17A.6)-167.5E-06   

(X_U17A.7)   10.0780                  (X_U17A.8)   10.0780                      

(X_U17A.9)    0.0000                  (X_U17B.6) 18.61E-06                      

(X_U17B.7)    -.5930                  (X_U17B.8)    -.5930                      

(X_U17B.9)    0.0000                  (X_U18A.6)    -.0018                      

(X_U18A.7)    9.6046                  (X_U18A.8)    9.6046                      

(X_U18A.9)    0.0000                  (X_U18A.a)   18.9980                      

(X_U18A.b)    -.0022                  (X_U19A.6)-1.444E-06                      

(X_U19A.7)     .0150                  (X_U19A.8)     .0150                      

(X_U19A.9)    0.0000                  (X_U17A.10)   10.0670                     

(X_U17A.11)  -18.9540                 (X_U17A.12)  -18.9550                     

(X_U17A.13)   10.0460                 (X_U17A.14)   10.0460                     

(X_U17A.53)   18.0000                 (X_U17A.54)  -18.0000                     

(X_U17A.90)    2.1579                 (X_U17A.91)   70.0000                     

(X_U17A.92)  -70.0000                 (X_U17A.99)    0.0000                     

(X_U17B.10)    7.9092                 (X_U17B.11)  -18.9540                     

(X_U17B.12)  -18.9540                 (X_U17B.13)    7.8881                     

(X_U17B.14)    7.8882                 (X_U17B.53)   18.0000                     

(X_U17B.54)  -18.0000                 (X_U17B.90)   -2.1723                     

(X_U17B.91)   70.0000                 (X_U17B.92)  -70.0000                     

(X_U17B.99)    0.0000                 (X_U18A.10)   10.1040                     

(X_U18A.11)  -18.9610                 (X_U18A.12)  -18.9640                     

(X_U18A.13)   10.0900                 (X_U18A.14)   10.0910                     

(X_U18A.53)   17.5000                 (X_U18A.54)  -18.1780                     

(X_U18A.90)    2.1597                 (X_U18A.91)   40.0000                     

(X_U18A.92)  -40.0000                 (X_U18A.99)    0.0000                     

(X_U19A.10)     .4052                 (X_U19A.11)   18.5750                     

(X_U19A.12)   18.5750                 (X_U19A.53)   16.6840                     

(X_U19A.54)  -16.6840                 (X_U19A.90)     .0124                     

(X_U19A.91)   40.0000                 (X_U19A.92)  -40.0000                     

(X_U19A.99)    0.0000                 




    VOLTAGE SOURCE CURRENTS
    NAME         CURRENT

    V_V13        3.814E-02
    V_V12       -5.116E-02
    V_V14        2.190E-10
    X_U17A.vb   -1.675E-09
    X_U17A.vc    8.506E-12
    X_U17A.ve    2.996E-11
    X_U17A.vlim   2.158E-03
    X_U17A.vlp  -6.784E-11
    X_U17A.vln  -7.216E-11
    X_U17B.vb    1.861E-10
    X_U17B.vc    1.801E-11
    X_U17B.ve    2.046E-11
    X_U17B.vlim  -2.172E-03
    X_U17B.vlp  -7.217E-11
    X_U17B.vln  -6.783E-11
    X_U18A.vb   -1.821E-08
    X_U18A.vc    8.004E-12
    X_U18A.ve    3.016E-11
    X_U18A.vlim   2.160E-03
    X_U18A.vlp  -3.784E-11
    X_U18A.vln  -4.216E-11
    X_U19A.vb   -1.444E-11
    X_U19A.vc    1.667E-11
    X_U19A.ve    1.898E-11
    X_U19A.vlim   1.245E-05
    X_U19A.vlp  -3.999E-11
    X_U19A.vln  -4.001E-11

    TOTAL POWER DISSIPATION   1.70E+00  WATTS

 NODE   VOLTAGE     NODE   VOLTAGE     NODE   VOLTAGE     NODE   VOLTAGE


(  VCC)   19.0000  ( -VCC)  -19.0000  ( ANOD)   19.0000  (CATOD)   18.2110      

(N28683)     .0035 (N29276)    9.4998 (N29441)    7.3408 (N29680)    9.4966     

(N29687)    7.3405 (N29705)     .0097 (N30063)     .0060 (N30086)     .0035     

(N30135)     .0060 (N34215)    9.5000 (SENSOR)    9.5002 (X_U17A.6)-167.6E-06   

(X_U17A.7)   10.0830                  (X_U17A.8)   10.0830                      

(X_U17A.9)    0.0000                  (X_U17B.6) 18.19E-06                      

(X_U17B.7)    -.5715                  (X_U17B.8)    -.5715                      

(X_U17B.9)    0.0000                  (X_U18A.6)    -.0018                      

(X_U18A.7)    9.6044                  (X_U18A.8)    9.6044                      

(X_U18A.9)    0.0000                  (X_U18A.a)   18.9980                      

(X_U18A.b)    -.0022                  (X_U19A.6)-303.1E-09                      

(X_U19A.7)     .0033                  (X_U19A.8)     .0033                      

(X_U19A.9)    0.0000                  (X_U17A.10)   10.0720                     

(X_U17A.11)  -18.9540                 (X_U17A.12)  -18.9550                     

(X_U17A.13)   10.0510                 (X_U17A.14)   10.0510                     

(X_U17A.53)   18.0000                 (X_U17A.54)  -18.0000                     

(X_U17A.90)    2.1590                 (X_U17A.91)   70.0000                     

(X_U17A.92)  -70.0000                 (X_U17A.99)    0.0000                     

(X_U17B.10)    7.9129                 (X_U17B.11)  -18.9540                     

(X_U17B.12)  -18.9540                 (X_U17B.13)    7.8918                     

(X_U17B.14)    7.8919                 (X_U17B.53)   18.0000                     

(X_U17B.54)  -18.0000                 (X_U17B.90)   -2.1524                     

(X_U17B.91)   70.0000                 (X_U17B.92)  -70.0000                     

(X_U17B.99)    0.0000                 (X_U18A.10)   10.1040                     

(X_U18A.11)  -18.9610                 (X_U18A.12)  -18.9640                     

(X_U18A.13)   10.0900                 (X_U18A.14)   10.0910                     

(X_U18A.53)   17.5000                 (X_U18A.54)  -18.1780                     

(X_U18A.90)    2.1560                 (X_U18A.91)   40.0000                     

(X_U18A.92)  -40.0000                 (X_U18A.99)    0.0000                     

(X_U19A.10)     .4052                 (X_U19A.11)   18.5750                     

(X_U19A.12)   18.5750                 (X_U19A.53)   16.6840                     

(X_U19A.54)  -16.6840                 (X_U19A.90)    -.0037                     

(X_U19A.91)   40.0000                 (X_U19A.92)  -40.0000                     

(X_U19A.99)    0.0000                 




    VOLTAGE SOURCE CURRENTS
    NAME         CURRENT

    V_V13        3.814E-02
    V_V12       -5.115E-02
    V_V14        2.190E-10
    X_U17A.vb   -1.676E-09
    X_U17A.vc    8.501E-12
    X_U17A.ve    2.996E-11
    X_U17A.vlim   2.159E-03
    X_U17A.vlp  -6.784E-11
    X_U17A.vln  -7.216E-11
    X_U17B.vb    1.819E-10
    X_U17B.vc    1.799E-11
    X_U17B.ve    2.047E-11
    X_U17B.vlim  -2.152E-03
    X_U17B.vlp  -7.215E-11
    X_U17B.vln  -6.785E-11
    X_U18A.vb   -1.821E-08
    X_U18A.vc    8.004E-12
    X_U18A.ve    3.016E-11
    X_U18A.vlim   2.156E-03
    X_U18A.vlp  -3.784E-11
    X_U18A.vln  -4.216E-11
    X_U19A.vb   -3.031E-12
    X_U19A.vc    1.668E-11
    X_U19A.ve    1.897E-11
    X_U19A.vlim  -3.691E-06
    X_U19A.vlp  -4.000E-11
    X_U19A.vln  -4.000E-11

    TOTAL POWER DISSIPATION   1.70E+00  WATTS

 NODE   VOLTAGE     NODE   VOLTAGE     NODE   VOLTAGE     NODE   VOLTAGE


(  VCC)   19.0000  ( -VCC)  -19.0000  ( ANOD)   19.0000  (CATOD)   18.2110      

(N28683)     .0035 (N29276)    9.4998 (N29441)    7.3408 (N29680)    9.4966     

(N29687)    7.3405 (N29705)     .0097 (N30063)     .0060 (N30086)     .0035     

(N30135)     .0060 (N34215)    9.5000 (SENSOR)    9.5002 (X_U17A.6)-167.6E-06   

(X_U17A.7)   10.0830                  (X_U17A.8)   10.0830                      

(X_U17A.9)    0.0000                  (X_U17B.6) 18.19E-06                      

(X_U17B.7)    -.5715                  (X_U17B.8)    -.5715                      

(X_U17B.9)    0.0000                  (X_U18A.6)    -.0018                      

(X_U18A.7)    9.6044                  (X_U18A.8)    9.6044                      

(X_U18A.9)    0.0000                  (X_U18A.a)   18.9980                      

(X_U18A.b)    -.0022                  (X_U19A.6)-303.1E-09                      

(X_U19A.7)     .0033                  (X_U19A.8)     .0033                      

(X_U19A.9)    0.0000                  (X_U17A.10)   10.0720                     

(X_U17A.11)  -18.9540                 (X_U17A.12)  -18.9550                     

(X_U17A.13)   10.0510                 (X_U17A.14)   10.0510                     

(X_U17A.53)   18.0000                 (X_U17A.54)  -18.0000                     

(X_U17A.90)    2.1590                 (X_U17A.91)   70.0000                     

(X_U17A.92)  -70.0000                 (X_U17A.99)    0.0000                     

(X_U17B.10)    7.9129                 (X_U17B.11)  -18.9540                     

(X_U17B.12)  -18.9540                 (X_U17B.13)    7.8918                     

(X_U17B.14)    7.8919                 (X_U17B.53)   18.0000                     

(X_U17B.54)  -18.0000                 (X_U17B.90)   -2.1524                     

(X_U17B.91)   70.0000                 (X_U17B.92)  -70.0000                     

(X_U17B.99)    0.0000                 (X_U18A.10)   10.1040                     

(X_U18A.11)  -18.9610                 (X_U18A.12)  -18.9640                     

(X_U18A.13)   10.0900                 (X_U18A.14)   10.0910                     

(X_U18A.53)   17.5000                 (X_U18A.54)  -18.1780                     

(X_U18A.90)    2.1560                 (X_U18A.91)   40.0000                     

(X_U18A.92)  -40.0000                 (X_U18A.99)    0.0000                     

(X_U19A.10)     .4052                 (X_U19A.11)   18.5750                     

(X_U19A.12)   18.5750                 (X_U19A.53)   16.6840                     

(X_U19A.54)  -16.6840                 (X_U19A.90)    -.0037                     

(X_U19A.91)   40.0000                 (X_U19A.92)  -40.0000                     

(X_U19A.99)    0.0000                 




    VOLTAGE SOURCE CURRENTS
    NAME         CURRENT

    V_V13        3.814E-02
    V_V12       -5.115E-02
    V_V14        2.190E-10
    X_U17A.vb   -1.676E-09
    X_U17A.vc    8.501E-12
    X_U17A.ve    2.996E-11
    X_U17A.vlim   2.159E-03
    X_U17A.vlp  -6.784E-11
    X_U17A.vln  -7.216E-11
    X_U17B.vb    1.819E-10
    X_U17B.vc    1.799E-11
    X_U17B.ve    2.047E-11
    X_U17B.vlim  -2.152E-03
    X_U17B.vlp  -7.215E-11
    X_U17B.vln  -6.785E-11
    X_U18A.vb   -1.821E-08
    X_U18A.vc    8.004E-12
    X_U18A.ve    3.016E-11
    X_U18A.vlim   2.156E-03
    X_U18A.vlp  -3.784E-11
    X_U18A.vln  -4.216E-11
    X_U19A.vb   -3.031E-12
    X_U19A.vc    1.668E-11
    X_U19A.ve    1.897E-11
    X_U19A.vlim  -3.691E-06
    X_U19A.vlp  -4.000E-11
    X_U19A.vln  -4.000E-11

    TOTAL POWER DISSIPATION   1.70E+00  WATTS

 NODE   VOLTAGE     NODE   VOLTAGE     NODE   VOLTAGE     NODE   VOLTAGE


(  VCC)   19.0000  ( -VCC)  -19.0000  ( ANOD)   19.0000  (CATOD)   18.2110      

(N28683)    -.0074 (N29276)    9.5045 (N29441)    7.3444 (N29680)    9.4966     

(N29687)    7.3442 (N29705)     .0258 (N30063)     .0060 (N30086)    -.0074     

(N30135)     .0060 (N34215)    9.5000 (SENSOR)    9.5049 (X_U17A.6)-167.7E-06   

(X_U17A.7)   10.0880                  (X_U17A.8)   10.0880                      

(X_U17A.9)    0.0000                  (X_U17B.6) 17.76E-06                      

(X_U17B.7)    -.5500                  (X_U17B.8)    -.5500                      

(X_U17B.9)    0.0000                  (X_U18A.6)    -.0018                      

(X_U18A.7)    9.6042                  (X_U18A.8)    9.6042                      

(X_U18A.9)    0.0000                  (X_U18A.a)   18.9980                      

(X_U18A.b)    -.0022                  (X_U19A.6) 838.0E-09                      

(X_U19A.7)    -.0084                  (X_U19A.8)    -.0084                      

(X_U19A.9)    0.0000                  (X_U17A.10)   10.0760                     

(X_U17A.11)  -18.9540                 (X_U17A.12)  -18.9550                     

(X_U17A.13)   10.0560                 (X_U17A.14)   10.0560                     

(X_U17A.53)   18.0000                 (X_U17A.54)  -18.0000                     

(X_U17A.90)    2.1600                 (X_U17A.91)   70.0000                     

(X_U17A.92)  -70.0000                 (X_U17A.99)    0.0000                     

(X_U17B.10)    7.9165                 (X_U17B.11)  -18.9540                     

(X_U17B.12)  -18.9540                 (X_U17B.13)    7.8955                     

(X_U17B.14)    7.8956                 (X_U17B.53)   18.0000                     

(X_U17B.54)  -18.0000                 (X_U17B.90)   -2.1326                     

(X_U17B.91)   70.0000                 (X_U17B.92)  -70.0000                     

(X_U17B.99)    0.0000                 (X_U18A.10)   10.1040                     

(X_U18A.11)  -18.9610                 (X_U18A.12)  -18.9640                     

(X_U18A.13)   10.0900                 (X_U18A.14)   10.0910                     

(X_U18A.53)   17.5000                 (X_U18A.54)  -18.1780                     

(X_U18A.90)    2.1524                 (X_U18A.91)   40.0000                     

(X_U18A.92)  -40.0000                 (X_U18A.99)    0.0000                     

(X_U19A.10)     .4052                 (X_U19A.11)   18.5750                     

(X_U19A.12)   18.5750                 (X_U19A.53)   16.6840                     

(X_U19A.54)  -16.6840                 (X_U19A.90)    -.0198                     

(X_U19A.91)   40.0000                 (X_U19A.92)  -40.0000                     

(X_U19A.99)    0.0000                 




    VOLTAGE SOURCE CURRENTS
    NAME         CURRENT

    V_V13        3.814E-02
    V_V12       -5.115E-02
    V_V14        2.190E-10
    X_U17A.vb   -1.677E-09
    X_U17A.vc    8.496E-12
    X_U17A.ve    2.997E-11
    X_U17A.vlim   2.160E-03
    X_U17A.vlp  -6.784E-11
    X_U17A.vln  -7.216E-11
    X_U17B.vb    1.776E-10
    X_U17B.vc    1.798E-11
    X_U17B.ve    2.049E-11
    X_U17B.vlim  -2.133E-03
    X_U17B.vlp  -7.213E-11
    X_U17B.vln  -6.787E-11
    X_U18A.vb   -1.821E-08
    X_U18A.vc    8.004E-12
    X_U18A.ve    3.016E-11
    X_U18A.vlim   2.152E-03
    X_U18A.vlp  -3.785E-11
    X_U18A.vln  -4.216E-11
    X_U19A.vb    8.380E-12
    X_U19A.vc    1.669E-11
    X_U19A.ve    1.896E-11
    X_U19A.vlim  -1.983E-05
    X_U19A.vlp  -4.002E-11
    X_U19A.vln  -3.998E-11

    TOTAL POWER DISSIPATION   1.70E+00  WATTS

 NODE   VOLTAGE     NODE   VOLTAGE     NODE   VOLTAGE     NODE   VOLTAGE


(  VCC)   19.0000  ( -VCC)  -19.0000  ( ANOD)   19.0000  (CATOD)   18.2110      

(N28683)     .0084 (N29276)    9.4998 (N29441)    7.3391 (N29680)    9.4966     

(N29687)    7.3389 (N29705)     .0023 (N30063)     .0060 (N30086)     .0084     

(N30135)     .0060 (N34215)    9.5000 (SENSOR)    9.5002 (X_U17A.6)-167.6E-06   

(X_U17A.7)   10.0830                  (X_U17A.8)   10.0830                      

(X_U17A.9)    0.0000                  (X_U17B.6) 18.38E-06                      

(X_U17B.7)    -.5813                  (X_U17B.8)    -.5813                      

(X_U17B.9)    0.0000                  (X_U18A.6)    -.0018                      

(X_U18A.7)    9.6045                  (X_U18A.8)    9.6045                      

(X_U18A.9)    0.0000                  (X_U18A.a)   18.9980                      

(X_U18A.b)    -.0022                  (X_U19A.6)-821.9E-09                      

(X_U19A.7)     .0086                  (X_U19A.8)     .0086                      

(X_U19A.9)    0.0000                  (X_U17A.10)   10.0720                     

(X_U17A.11)  -18.9540                 (X_U17A.12)  -18.9550                     

(X_U17A.13)   10.0510                 (X_U17A.14)   10.0510                     

(X_U17A.53)   18.0000                 (X_U17A.54)  -18.0000                     

(X_U17A.90)    2.1585                 (X_U17A.91)   70.0000                     

(X_U17A.92)  -70.0000                 (X_U17A.99)    0.0000                     

(X_U17B.10)    7.9112                 (X_U17B.11)  -18.9540                     

(X_U17B.12)  -18.9540                 (X_U17B.13)    7.8901                     

(X_U17B.14)    7.8902                 (X_U17B.53)   18.0000                     

(X_U17B.54)  -18.0000                 (X_U17B.90)   -2.1614                     

(X_U17B.91)   70.0000                 (X_U17B.92)  -70.0000                     

(X_U17B.99)    0.0000                 (X_U18A.10)   10.1040                     

(X_U18A.11)  -18.9610                 (X_U18A.12)  -18.9640                     

(X_U18A.13)   10.0900                 (X_U18A.14)   10.0910                     

(X_U18A.53)   17.5000                 (X_U18A.54)  -18.1780                     

(X_U18A.90)    2.1577                 (X_U18A.91)   40.0000                     

(X_U18A.92)  -40.0000                 (X_U18A.99)    0.0000                     

(X_U19A.10)     .4052                 (X_U19A.11)   18.5750                     

(X_U19A.12)   18.5750                 (X_U19A.53)   16.6840                     

(X_U19A.54)  -16.6840                 (X_U19A.90)     .0036                     

(X_U19A.91)   40.0000                 (X_U19A.92)  -40.0000                     

(X_U19A.99)    0.0000                 




    VOLTAGE SOURCE CURRENTS
    NAME         CURRENT

    V_V13        3.814E-02
    V_V12       -5.115E-02
    V_V14        2.190E-10
    X_U17A.vb   -1.676E-09
    X_U17A.vc    8.501E-12
    X_U17A.ve    2.996E-11
    X_U17A.vlim   2.158E-03
    X_U17A.vlp  -6.784E-11
    X_U17A.vln  -7.216E-11
    X_U17B.vb    1.838E-10
    X_U17B.vc    1.800E-11
    X_U17B.ve    2.047E-11
    X_U17B.vlim  -2.161E-03
    X_U17B.vlp  -7.216E-11
    X_U17B.vln  -6.784E-11
    X_U18A.vb   -1.821E-08
    X_U18A.vc    8.004E-12
    X_U18A.ve    3.016E-11
    X_U18A.vlim   2.158E-03
    X_U18A.vlp  -3.784E-11
    X_U18A.vln  -4.216E-11
    X_U19A.vb   -8.219E-12
    X_U19A.vc    1.668E-11
    X_U19A.ve    1.898E-11
    X_U19A.vlim   3.647E-06
    X_U19A.vlp  -4.000E-11
    X_U19A.vln  -4.000E-11

    TOTAL POWER DISSIPATION   1.70E+00  WATTS

 NODE   VOLTAGE     NODE   VOLTAGE     NODE   VOLTAGE     NODE   VOLTAGE


(  VCC)   19.0000  ( -VCC)  -19.0000  ( ANOD)   19.0000  (CATOD)   18.2110      

(N28683)    -.0014 (N29276)    9.4998 (N29441)    7.3424 (N29680)    9.4966     

(N29687)    7.3422 (N29705)     .0170 (N30063)     .0060 (N30086)    -.0014     

(N30135)     .0060 (N34215)    9.5000 (SENSOR)    9.5002 (X_U17A.6)-167.6E-06   

(X_U17A.7)   10.0820                  (X_U17A.8)   10.0820                      

(X_U17A.9)    0.0000                  (X_U17B.6) 17.99E-06                      

(X_U17B.7)    -.5617                  (X_U17B.8)    -.5617                      

(X_U17B.9)    0.0000                  (X_U18A.6)    -.0018                      

(X_U18A.7)    9.6043                  (X_U18A.8)    9.6043                      

(X_U18A.9)    0.0000                  (X_U18A.a)   18.9980                      

(X_U18A.b)    -.0022                  (X_U19A.6) 215.5E-09                      

(X_U19A.7)    -.0020                  (X_U19A.8)    -.0020                      

(X_U19A.9)    0.0000                  (X_U17A.10)   10.0720                     

(X_U17A.11)  -18.9540                 (X_U17A.12)  -18.9550                     

(X_U17A.13)   10.0510                 (X_U17A.14)   10.0510                     

(X_U17A.53)   18.0000                 (X_U17A.54)  -18.0000                     

(X_U17A.90)    2.1573                 (X_U17A.91)   70.0000                     

(X_U17A.92)  -70.0000                 (X_U17A.99)    0.0000                     

(X_U17B.10)    7.9145                 (X_U17B.11)  -18.9540                     

(X_U17B.12)  -18.9540                 (X_U17B.13)    7.8935                     

(X_U17B.14)    7.8936                 (X_U17B.53)   18.0000                     

(X_U17B.54)  -18.0000                 (X_U17B.90)   -2.1434                     

(X_U17B.91)   70.0000                 (X_U17B.92)  -70.0000                     

(X_U17B.99)    0.0000                 (X_U18A.10)   10.1040                     

(X_U18A.11)  -18.9610                 (X_U18A.12)  -18.9640                     

(X_U18A.13)   10.0900                 (X_U18A.14)   10.0910                     

(X_U18A.53)   17.5000                 (X_U18A.54)  -18.1780                     

(X_U18A.90)    2.1544                 (X_U18A.91)   40.0000                     

(X_U18A.92)  -40.0000                 (X_U18A.99)    0.0000                     

(X_U19A.10)     .4052                 (X_U19A.11)   18.5750                     

(X_U19A.12)   18.5750                 (X_U19A.53)   16.6840                     

(X_U19A.54)  -16.6840                 (X_U19A.90)    -.0110                     

(X_U19A.91)   40.0000                 (X_U19A.92)  -40.0000                     

(X_U19A.99)    0.0000                 




    VOLTAGE SOURCE CURRENTS
    NAME         CURRENT

    V_V13        3.814E-02
    V_V12       -5.115E-02
    V_V14        2.190E-10
    X_U17A.vb   -1.676E-09
    X_U17A.vc    8.501E-12
    X_U17A.ve    2.996E-11
    X_U17A.vlim   2.157E-03
    X_U17A.vlp  -6.784E-11
    X_U17A.vln  -7.216E-11
    X_U17B.vb    1.799E-10
    X_U17B.vc    1.798E-11
    X_U17B.ve    2.048E-11
    X_U17B.vlim  -2.143E-03
    X_U17B.vlp  -7.214E-11
    X_U17B.vln  -6.786E-11
    X_U18A.vb   -1.821E-08
    X_U18A.vc    8.004E-12
    X_U18A.ve    3.016E-11
    X_U18A.vlim   2.154E-03
    X_U18A.vlp  -3.785E-11
    X_U18A.vln  -4.216E-11
    X_U19A.vb    2.155E-12
    X_U19A.vc    1.669E-11
    X_U19A.ve    1.897E-11
    X_U19A.vlim  -1.103E-05
    X_U19A.vlp  -4.001E-11
    X_U19A.vln  -3.999E-11

    TOTAL POWER DISSIPATION   1.70E+00  WATTS

 NODE   VOLTAGE     NODE   VOLTAGE     NODE   VOLTAGE     NODE   VOLTAGE


(  VCC)   19.0000  ( -VCC)  -19.0000  ( ANOD)   19.0000  (CATOD)   18.2110      

(N28683)    -.0074 (N29276)    9.4998 (N29441)    7.3408 (N29680)    9.4919     

(N29687)    7.3405 (N29705)     .0258 (N30063)     .0060 (N30086)    -.0074     

(N30135)     .0060 (N34215)    9.4953 (SENSOR)    9.5002 (X_U17A.6)-167.6E-06   

(X_U17A.7)   10.0830                  (X_U17A.8)   10.0830                      

(X_U17A.9)    0.0000                  (X_U17B.6) 17.75E-06                      

(X_U17B.7)    -.5497                  (X_U17B.8)    -.5497                      

(X_U17B.9)    0.0000                  (X_U18A.6)    -.0018                      

(X_U18A.7)    9.5994                  (X_U18A.8)    9.5994                      

(X_U18A.9)    0.0000                  (X_U18A.a)   18.9980                      

(X_U18A.b)    -.0022                  (X_U19A.6) 837.7E-09                      

(X_U19A.7)    -.0084                  (X_U19A.8)    -.0084                      

(X_U19A.9)    0.0000                  (X_U17A.10)   10.0720                     

(X_U17A.11)  -18.9540                 (X_U17A.12)  -18.9550                     

(X_U17A.13)   10.0510                 (X_U17A.14)   10.0510                     

(X_U17A.53)   18.0000                 (X_U17A.54)  -18.0000                     

(X_U17A.90)    2.1590                 (X_U17A.91)   70.0000                     

(X_U17A.92)  -70.0000                 (X_U17A.99)    0.0000                     

(X_U17B.10)    7.9129                 (X_U17B.11)  -18.9540                     

(X_U17B.12)  -18.9540                 (X_U17B.13)    7.8918                     

(X_U17B.14)    7.8919                 (X_U17B.53)   18.0000                     

(X_U17B.54)  -18.0000                 (X_U17B.90)   -2.1316                     

(X_U17B.91)   70.0000                 (X_U17B.92)  -70.0000                     

(X_U17B.99)    0.0000                 (X_U18A.10)   10.0990                     

(X_U18A.11)  -18.9610                 (X_U18A.12)  -18.9640                     

(X_U18A.13)   10.0860                 (X_U18A.14)   10.0870                     

(X_U18A.53)   17.5000                 (X_U18A.54)  -18.1780                     

(X_U18A.90)    2.1513                 (X_U18A.91)   40.0000                     

(X_U18A.92)  -40.0000                 (X_U18A.99)    0.0000                     

(X_U19A.10)     .4052                 (X_U19A.11)   18.5750                     

(X_U19A.12)   18.5750                 (X_U19A.53)   16.6840                     

(X_U19A.54)  -16.6840                 (X_U19A.90)    -.0198                     

(X_U19A.91)   40.0000                 (X_U19A.92)  -40.0000                     

(X_U19A.99)    0.0000                 




    VOLTAGE SOURCE CURRENTS
    NAME         CURRENT

    V_V13        3.814E-02
    V_V12       -5.114E-02
    V_V14        2.190E-10
    X_U17A.vb   -1.676E-09
    X_U17A.vc    8.501E-12
    X_U17A.ve    2.996E-11
    X_U17A.vlim   2.159E-03
    X_U17A.vlp  -6.784E-11
    X_U17A.vln  -7.216E-11
    X_U17B.vb    1.775E-10
    X_U17B.vc    1.798E-11
    X_U17B.ve    2.049E-11
    X_U17B.vlim  -2.132E-03
    X_U17B.vlp  -7.213E-11
    X_U17B.vln  -6.787E-11
    X_U18A.vb   -1.820E-08
    X_U18A.vc    8.009E-12
    X_U18A.ve    3.016E-11
    X_U18A.vlim   2.151E-03
    X_U18A.vlp  -3.785E-11
    X_U18A.vln  -4.216E-11
    X_U19A.vb    8.377E-12
    X_U19A.vc    1.669E-11
    X_U19A.ve    1.896E-11
    X_U19A.vlim  -1.983E-05
    X_U19A.vlp  -4.002E-11
    X_U19A.vln  -3.998E-11

    TOTAL POWER DISSIPATION   1.70E+00  WATTS

 NODE   VOLTAGE     NODE   VOLTAGE     NODE   VOLTAGE     NODE   VOLTAGE


(  VCC)   19.0000  ( -VCC)  -19.0000  ( ANOD)   19.0000  (CATOD)   18.2110      

(N28683)     .0144 (N29276)    9.4998 (N29441)    7.3408 (N29680)    9.5014     

(N29687)    7.3405 (N29705)    -.0065 (N30063)     .0060 (N30086)     .0144     

(N30135)     .0060 (N34215)    9.5048 (SENSOR)    9.5002 (X_U17A.6)-167.6E-06   

(X_U17A.7)   10.0830                  (X_U17A.8)   10.0830                      

(X_U17A.9)    0.0000                  (X_U17B.6) 18.62E-06                      

(X_U17B.7)    -.5933                  (X_U17B.8)    -.5933                      

(X_U17B.9)    0.0000                  (X_U18A.6)    -.0018                      

(X_U18A.7)    9.6094                  (X_U18A.8)    9.6094                      

(X_U18A.9)    0.0000                  (X_U18A.a)   18.9980                      

(X_U18A.b)    -.0022                  (X_U19A.6)-1.444E-06                      

(X_U19A.7)     .0150                  (X_U19A.8)     .0150                      

(X_U19A.9)    0.0000                  (X_U17A.10)   10.0720                     

(X_U17A.11)  -18.9540                 (X_U17A.12)  -18.9550                     

(X_U17A.13)   10.0510                 (X_U17A.14)   10.0510                     

(X_U17A.53)   18.0000                 (X_U17A.54)  -18.0000                     

(X_U17A.90)    2.1590                 (X_U17A.91)   70.0000                     

(X_U17A.92)  -70.0000                 (X_U17A.99)    0.0000                     

(X_U17B.10)    7.9129                 (X_U17B.11)  -18.9540                     

(X_U17B.12)  -18.9540                 (X_U17B.13)    7.8918                     

(X_U17B.14)    7.8919                 (X_U17B.53)   18.0000                     

(X_U17B.54)  -18.0000                 (X_U17B.90)   -2.1733                     

(X_U17B.91)   70.0000                 (X_U17B.92)  -70.0000                     

(X_U17B.99)    0.0000                 (X_U18A.10)   10.1090                     

(X_U18A.11)  -18.9610                 (X_U18A.12)  -18.9640                     

(X_U18A.13)   10.0950                 (X_U18A.14)   10.0960                     

(X_U18A.53)   17.5000                 (X_U18A.54)  -18.1780                     

(X_U18A.90)    2.1608                 (X_U18A.91)   40.0000                     

(X_U18A.92)  -40.0000                 (X_U18A.99)    0.0000                     

(X_U19A.10)     .4052                 (X_U19A.11)   18.5750                     

(X_U19A.12)   18.5750                 (X_U19A.53)   16.6840                     

(X_U19A.54)  -16.6840                 (X_U19A.90)     .0124                     

(X_U19A.91)   40.0000                 (X_U19A.92)  -40.0000                     

(X_U19A.99)    0.0000                 




    VOLTAGE SOURCE CURRENTS
    NAME         CURRENT

    V_V13        3.814E-02
    V_V12       -5.115E-02
    V_V14        2.190E-10
    X_U17A.vb   -1.676E-09
    X_U17A.vc    8.501E-12
    X_U17A.ve    2.996E-11
    X_U17A.vlim   2.159E-03
    X_U17A.vlp  -6.784E-11
    X_U17A.vln  -7.216E-11
    X_U17B.vb    1.862E-10
    X_U17B.vc    1.801E-11
    X_U17B.ve    2.046E-11
    X_U17B.vlim  -2.173E-03
    X_U17B.vlp  -7.217E-11
    X_U17B.vln  -6.783E-11
    X_U18A.vb   -1.822E-08
    X_U18A.vc    7.999E-12
    X_U18A.ve    3.017E-11
    X_U18A.vlim   2.161E-03
    X_U18A.vlp  -3.784E-11
    X_U18A.vln  -4.217E-11
    X_U19A.vb   -1.444E-11
    X_U19A.vc    1.667E-11
    X_U19A.ve    1.898E-11
    X_U19A.vlim   1.244E-05
    X_U19A.vlp  -3.999E-11
    X_U19A.vln  -4.001E-11

    TOTAL POWER DISSIPATION   1.70E+00  WATTS

 NODE   VOLTAGE     NODE   VOLTAGE     NODE   VOLTAGE     NODE   VOLTAGE


(  VCC)   19.0000  ( -VCC)  -19.0000  ( ANOD)   19.0000  (CATOD)   18.2110      

(N28683)    -.0014 (N29276)    9.4998 (N29441)    7.3408 (N29680)    9.4966     

(N29687)    7.3405 (N29705)     .0170 (N30063)     .0060 (N30086)    -.0014     

(N30135)     .0060 (N34215)    9.5000 (SENSOR)    9.5002 (X_U17A.6)-167.6E-06   

(X_U17A.7)   10.0830                  (X_U17A.8)   10.0830                      

(X_U17A.9)    0.0000                  (X_U17B.6) 17.99E-06                      

(X_U17B.7)    -.5616                  (X_U17B.8)    -.5616                      

(X_U17B.9)    0.0000                  (X_U18A.6)    -.0018                      

(X_U18A.7)    9.6043                  (X_U18A.8)    9.6043                      

(X_U18A.9)    0.0000                  (X_U18A.a)   18.9980                      

(X_U18A.b)    -.0022                  (X_U19A.6) 214.7E-09                      

(X_U19A.7)    -.0020                  (X_U19A.8)    -.0020                      

(X_U19A.9)    0.0000                  (X_U17A.10)   10.0720                     

(X_U17A.11)  -18.9540                 (X_U17A.12)  -18.9550                     

(X_U17A.13)   10.0510                 (X_U17A.14)   10.0510                     

(X_U17A.53)   18.0000                 (X_U17A.54)  -18.0000                     

(X_U17A.90)    2.1590                 (X_U17A.91)   70.0000                     

(X_U17A.92)  -70.0000                 (X_U17A.99)    0.0000                     

(X_U17B.10)    7.9129                 (X_U17B.11)  -18.9540                     

(X_U17B.12)  -18.9540                 (X_U17B.13)    7.8918                     

(X_U17B.14)    7.8919                 (X_U17B.53)   18.0000                     

(X_U17B.54)  -18.0000                 (X_U17B.90)   -2.1430                     

(X_U17B.91)   70.0000                 (X_U17B.92)  -70.0000                     

(X_U17B.99)    0.0000                 (X_U18A.10)   10.1040                     

(X_U18A.11)  -18.9610                 (X_U18A.12)  -18.9640                     

(X_U18A.13)   10.0900                 (X_U18A.14)   10.0910                     

(X_U18A.53)   17.5000                 (X_U18A.54)  -18.1780                     

(X_U18A.90)    2.1539                 (X_U18A.91)   40.0000                     

(X_U18A.92)  -40.0000                 (X_U18A.99)    0.0000                     

(X_U19A.10)     .4052                 (X_U19A.11)   18.5750                     

(X_U19A.12)   18.5750                 (X_U19A.53)   16.6840                     

(X_U19A.54)  -16.6840                 (X_U19A.90)    -.0110                     

(X_U19A.91)   40.0000                 (X_U19A.92)  -40.0000                     

(X_U19A.99)    0.0000                 




    VOLTAGE SOURCE CURRENTS
    NAME         CURRENT

    V_V13        3.814E-02
    V_V12       -5.115E-02
    V_V14        2.190E-10
    X_U17A.vb   -1.676E-09
    X_U17A.vc    8.501E-12
    X_U17A.ve    2.996E-11
    X_U17A.vlim   2.159E-03
    X_U17A.vlp  -6.784E-11
    X_U17A.vln  -7.216E-11
    X_U17B.vb    1.799E-10
    X_U17B.vc    1.798E-11
    X_U17B.ve    2.048E-11
    X_U17B.vlim  -2.143E-03
    X_U17B.vlp  -7.214E-11
    X_U17B.vln  -6.786E-11
    X_U18A.vb   -1.821E-08
    X_U18A.vc    8.004E-12
    X_U18A.ve    3.016E-11
    X_U18A.vlim   2.154E-03
    X_U18A.vlp  -3.785E-11
    X_U18A.vln  -4.216E-11
    X_U19A.vb    2.147E-12
    X_U19A.vc    1.669E-11
    X_U19A.ve    1.897E-11
    X_U19A.vlim  -1.101E-05
    X_U19A.vlp  -4.001E-11
    X_U19A.vln  -3.999E-11

    TOTAL POWER DISSIPATION   1.70E+00  WATTS

 NODE   VOLTAGE     NODE   VOLTAGE     NODE   VOLTAGE     NODE   VOLTAGE


(  VCC)   19.0000  ( -VCC)  -19.0000  ( ANOD)   19.0000  (CATOD)   18.2110      

(N28683)     .0084 (N29276)    9.4998 (N29441)    7.3408 (N29680)    9.4966     

(N29687)    7.3405 (N29705)     .0023 (N30063)     .0060 (N30086)     .0084     

(N30135)     .0060 (N34215)    9.5000 (SENSOR)    9.5002 (X_U17A.6)-167.6E-06   

(X_U17A.7)   10.0830                  (X_U17A.8)   10.0830                      

(X_U17A.9)    0.0000                  (X_U17B.6) 18.36E-06                      

(X_U17B.7)    -.5808                  (X_U17B.8)    -.5808                      

(X_U17B.9)    0.0000                  (X_U18A.6)    -.0018                      

(X_U18A.7)    9.6044                  (X_U18A.8)    9.6044                      

(X_U18A.9)    0.0000                  (X_U18A.a)   18.9980                      

(X_U18A.b)    -.0022                  (X_U19A.6)-821.3E-09                      

(X_U19A.7)     .0086                  (X_U19A.8)     .0086                      

(X_U19A.9)    0.0000                  (X_U17A.10)   10.0720                     

(X_U17A.11)  -18.9540                 (X_U17A.12)  -18.9550                     

(X_U17A.13)   10.0510                 (X_U17A.14)   10.0510                     

(X_U17A.53)   18.0000                 (X_U17A.54)  -18.0000                     

(X_U17A.90)    2.1590                 (X_U17A.91)   70.0000                     

(X_U17A.92)  -70.0000                 (X_U17A.99)    0.0000                     

(X_U17B.10)    7.9129                 (X_U17B.11)  -18.9540                     

(X_U17B.12)  -18.9540                 (X_U17B.13)    7.8918                     

(X_U17B.14)    7.8919                 (X_U17B.53)   18.0000                     

(X_U17B.54)  -18.0000                 (X_U17B.90)   -2.1598                     

(X_U17B.91)   70.0000                 (X_U17B.92)  -70.0000                     

(X_U17B.99)    0.0000                 (X_U18A.10)   10.1040                     

(X_U18A.11)  -18.9610                 (X_U18A.12)  -18.9640                     

(X_U18A.13)   10.0900                 (X_U18A.14)   10.0910                     

(X_U18A.53)   17.5000                 (X_U18A.54)  -18.1780                     

(X_U18A.90)    2.1560                 (X_U18A.91)   40.0000                     

(X_U18A.92)  -40.0000                 (X_U18A.99)    0.0000                     

(X_U19A.10)     .4052                 (X_U19A.11)   18.5750                     

(X_U19A.12)   18.5750                 (X_U19A.53)   16.6840                     

(X_U19A.54)  -16.6840                 (X_U19A.90)     .0036                     

(X_U19A.91)   40.0000                 (X_U19A.92)  -40.0000                     

(X_U19A.99)    0.0000                 




    VOLTAGE SOURCE CURRENTS
    NAME         CURRENT

    V_V13        3.814E-02
    V_V12       -5.115E-02
    V_V14        2.190E-10
    X_U17A.vb   -1.676E-09
    X_U17A.vc    8.501E-12
    X_U17A.ve    2.996E-11
    X_U17A.vlim   2.159E-03
    X_U17A.vlp  -6.784E-11
    X_U17A.vln  -7.216E-11
    X_U17B.vb    1.836E-10
    X_U17B.vc    1.800E-11
    X_U17B.ve    2.047E-11
    X_U17B.vlim  -2.160E-03
    X_U17B.vlp  -7.216E-11
    X_U17B.vln  -6.784E-11
    X_U18A.vb   -1.821E-08
    X_U18A.vc    8.004E-12
    X_U18A.ve    3.016E-11
    X_U18A.vlim   2.156E-03
    X_U18A.vlp  -3.784E-11
    X_U18A.vln  -4.216E-11
    X_U19A.vb   -8.213E-12
    X_U19A.vc    1.668E-11
    X_U19A.ve    1.898E-11
    X_U19A.vlim   3.639E-06
    X_U19A.vlp  -4.000E-11
    X_U19A.vln  -4.000E-11

    TOTAL POWER DISSIPATION   1.70E+00  WATTS

 NODE   VOLTAGE     NODE   VOLTAGE     NODE   VOLTAGE     NODE   VOLTAGE


(  VCC)   19.0000  ( -VCC)  -19.0000  ( ANOD)   19.0000  (CATOD)   18.2110      

(N28683)     .0035 (N29276)    9.4998 (N29441)    7.3408 (N29680)    9.4966     

(N29687)    7.3405 (N29705)     .0097 (N30063)     .0060 (N30086)     .0035     

(N30135)     .0060 (N34215)    9.5000 (SENSOR)    9.5002 (X_U17A.6)-167.6E-06   

(X_U17A.7)   10.0830                  (X_U17A.8)   10.0830                      

(X_U17A.9)    0.0000                  (X_U17B.6) 18.19E-06                      

(X_U17B.7)    -.5715                  (X_U17B.8)    -.5715                      

(X_U17B.9)    0.0000                  (X_U18A.6)    -.0018                      

(X_U18A.7)    9.6044                  (X_U18A.8)    9.6044                      

(X_U18A.9)    0.0000                  (X_U18A.a)   18.9980                      

(X_U18A.b)    -.0022                  (X_U19A.6)-303.3E-09                      

(X_U19A.7)     .0033                  (X_U19A.8)     .0033                      

(X_U19A.9)    0.0000                  (X_U17A.10)   10.0720                     

(X_U17A.11)  -18.9540                 (X_U17A.12)  -18.9550                     

(X_U17A.13)   10.0510                 (X_U17A.14)   10.0510                     

(X_U17A.53)   18.0000                 (X_U17A.54)  -18.0000                     

(X_U17A.90)    2.1590                 (X_U17A.91)   70.0000                     

(X_U17A.92)  -70.0000                 (X_U17A.99)    0.0000                     

(X_U17B.10)    7.9129                 (X_U17B.11)  -18.9540                     

(X_U17B.12)  -18.9540                 (X_U17B.13)    7.8918                     

(X_U17B.14)    7.8919                 (X_U17B.53)   18.0000                     

(X_U17B.54)  -18.0000                 (X_U17B.90)   -2.1524                     

(X_U17B.91)   70.0000                 (X_U17B.92)  -70.0000                     

(X_U17B.99)    0.0000                 (X_U18A.10)   10.1040                     

(X_U18A.11)  -18.9610                 (X_U18A.12)  -18.9640                     

(X_U18A.13)   10.0900                 (X_U18A.14)   10.0910                     

(X_U18A.53)   17.5000                 (X_U18A.54)  -18.1780                     

(X_U18A.90)    2.1560                 (X_U18A.91)   40.0000                     

(X_U18A.92)  -40.0000                 (X_U18A.99)    0.0000                     

(X_U19A.10)     .4052                 (X_U19A.11)   18.5750                     

(X_U19A.12)   18.5750                 (X_U19A.53)   16.6840                     

(X_U19A.54)  -16.6840                 (X_U19A.90)    -.0037                     

(X_U19A.91)   40.0000                 (X_U19A.92)  -40.0000                     

(X_U19A.99)    0.0000                 




    VOLTAGE SOURCE CURRENTS
    NAME         CURRENT

    V_V13        3.814E-02
    V_V12       -5.115E-02
    V_V14        2.190E-10
    X_U17A.vb   -1.676E-09
    X_U17A.vc    8.501E-12
    X_U17A.ve    2.996E-11
    X_U17A.vlim   2.159E-03
    X_U17A.vlp  -6.784E-11
    X_U17A.vln  -7.216E-11
    X_U17B.vb    1.819E-10
    X_U17B.vc    1.799E-11
    X_U17B.ve    2.047E-11
    X_U17B.vlim  -2.152E-03
    X_U17B.vlp  -7.215E-11
    X_U17B.vln  -6.785E-11
    X_U18A.vb   -1.821E-08
    X_U18A.vc    8.004E-12
    X_U18A.ve    3.016E-11
    X_U18A.vlim   2.156E-03
    X_U18A.vlp  -3.784E-11
    X_U18A.vln  -4.216E-11
    X_U19A.vb   -3.033E-12
    X_U19A.vc    1.668E-11
    X_U19A.ve    1.897E-11
    X_U19A.vlim  -3.688E-06
    X_U19A.vlp  -4.000E-11
    X_U19A.vln  -4.000E-11

    TOTAL POWER DISSIPATION   1.70E+00  WATTS

 NODE   VOLTAGE     NODE   VOLTAGE     NODE   VOLTAGE     NODE   VOLTAGE


(  VCC)   19.0000  ( -VCC)  -19.0000  ( ANOD)   19.0000  (CATOD)   18.2110      

(N28683)     .0035 (N29276)    9.4998 (N29441)    7.3408 (N29680)    9.4966     

(N29687)    7.3405 (N29705)     .0097 (N30063)     .0060 (N30086)     .0035     

(N30135)     .0060 (N34215)    9.5000 (SENSOR)    9.5002 (X_U17A.6)-167.6E-06   

(X_U17A.7)   10.0830                  (X_U17A.8)   10.0830                      

(X_U17A.9)    0.0000                  (X_U17B.6) 18.19E-06                      

(X_U17B.7)    -.5715                  (X_U17B.8)    -.5715                      

(X_U17B.9)    0.0000                  (X_U18A.6)    -.0018                      

(X_U18A.7)    9.6044                  (X_U18A.8)    9.6044                      

(X_U18A.9)    0.0000                  (X_U18A.a)   18.9980                      

(X_U18A.b)    -.0022                  (X_U19A.6)-302.8E-09                      

(X_U19A.7)     .0033                  (X_U19A.8)     .0033                      

(X_U19A.9)    0.0000                  (X_U17A.10)   10.0720                     

(X_U17A.11)  -18.9540                 (X_U17A.12)  -18.9550                     

(X_U17A.13)   10.0510                 (X_U17A.14)   10.0510                     

(X_U17A.53)   18.0000                 (X_U17A.54)  -18.0000                     

(X_U17A.90)    2.1590                 (X_U17A.91)   70.0000                     

(X_U17A.92)  -70.0000                 (X_U17A.99)    0.0000                     

(X_U17B.10)    7.9129                 (X_U17B.11)  -18.9540                     

(X_U17B.12)  -18.9540                 (X_U17B.13)    7.8918                     

(X_U17B.14)    7.8919                 (X_U17B.53)   18.0000                     

(X_U17B.54)  -18.0000                 (X_U17B.90)   -2.1524                     

(X_U17B.91)   70.0000                 (X_U17B.92)  -70.0000                     

(X_U17B.99)    0.0000                 (X_U18A.10)   10.1040                     

(X_U18A.11)  -18.9610                 (X_U18A.12)  -18.9640                     

(X_U18A.13)   10.0900                 (X_U18A.14)   10.0910                     

(X_U18A.53)   17.5000                 (X_U18A.54)  -18.1780                     

(X_U18A.90)    2.1560                 (X_U18A.91)   40.0000                     

(X_U18A.92)  -40.0000                 (X_U18A.99)    0.0000                     

(X_U19A.10)     .4052                 (X_U19A.11)   18.5750                     

(X_U19A.12)   18.5750                 (X_U19A.53)   16.6840                     

(X_U19A.54)  -16.6840                 (X_U19A.90)    -.0037                     

(X_U19A.91)   40.0000                 (X_U19A.92)  -40.0000                     

(X_U19A.99)    0.0000                 




    VOLTAGE SOURCE CURRENTS
    NAME         CURRENT

    V_V13        3.814E-02
    V_V12       -5.115E-02
    V_V14        2.190E-10
    X_U17A.vb   -1.676E-09
    X_U17A.vc    8.501E-12
    X_U17A.ve    2.996E-11
    X_U17A.vlim   2.159E-03
    X_U17A.vlp  -6.784E-11
    X_U17A.vln  -7.216E-11
    X_U17B.vb    1.819E-10
    X_U17B.vc    1.799E-11
    X_U17B.ve    2.047E-11
    X_U17B.vlim  -2.152E-03
    X_U17B.vlp  -7.215E-11
    X_U17B.vln  -6.785E-11
    X_U18A.vb   -1.821E-08
    X_U18A.vc    8.004E-12
    X_U18A.ve    3.016E-11
    X_U18A.vlim   2.156E-03
    X_U18A.vlp  -3.784E-11
    X_U18A.vln  -4.216E-11
    X_U19A.vb   -3.028E-12
    X_U19A.vc    1.668E-11
    X_U19A.ve    1.897E-11
    X_U19A.vlim  -3.691E-06
    X_U19A.vlp  -4.000E-11
    X_U19A.vln  -4.000E-11

    TOTAL POWER DISSIPATION   1.70E+00  WATTS



Mean Deviation =  620.6500E-09
Sigma          =    6.8874E-03

 RUN                    MAX DEVIATION FROM NOMINAL

R_RS R_RS R              .0109  (1.58 sigma)  lower  at T =    1.0000E-06
                        (  -3.1028E+03% change per 1% change in Model Parameter)

R_R1 R_R1 R              .0109  (1.58 sigma)  higher  at T =  245.6000E-09
                        (   3.1034E+03% change per 1% change in Model Parameter)

R_R7 R_R7 R              .0109  (1.58 sigma)  higher  at T =  245.6000E-09
                        (   3.1026E+03% change per 1% change in Model Parameter)

R_R6 R_R6 R              .0109  (1.58 sigma)  lower  at T =    1.0000E-06
                        (  -3.1019E+03% change per 1% change in Model Parameter)

R_R2 R_R2 R            4.9388E-03  ( .72 sigma)  higher  at T =  200.0000E-12
                        (   1.4111E+03% change per 1% change in Model Parameter)

R_R3 R_R3 R            4.9368E-03  ( .72 sigma)  lower  at T =    1.0000E-06
                        (  -1.4102E+03% change per 1% change in Model Parameter)

R_R4 R_R4 R            4.9337E-03  ( .72 sigma)  higher  at T =    1.0000E-06
                        (   1.4093E+03% change per 1% change in Model Parameter)

R_R5 R_R5 R            4.9285E-03  ( .72 sigma)  lower  at T =  185.6000E-09
                        (  -1.4081E+03% change per 1% change in Model Parameter)

R_R8 R_R8 R            2.6715E-06  ( .00 sigma)  higher  at T =    1.0000E-06
                        (    .7631% change per 1% change in Model Parameter)

R_R9 R_R9 R            2.4857E-06  ( .00 sigma)  lower  at T =  185.6000E-09
                        (   -.7102% change per 1% change in Model Parameter)

R_R11 R_R11 R        311.9900E-09  ( .00 sigma)  higher  at T =    1.0000E-06
                        (    .0891% change per 1% change in Model Parameter)

R_R10 R_R10 R        143.6600E-09  ( .00 sigma)  higher  at T =    1.0000E-06
                        (    .041 % change per 1% change in Model Parameter)


**** 06/03/24 14:44:16 ***** PSpice 23.1.0 (6 March 2024) ***** ID# 0 ********

 ** Profile: "SCHEMATIC1-final"  [ c:\users\gh_ev\appdata\roaming\spb_data\cdssetup\workspace\projects\proiectfinalsper\proiectfinals


 ****     INITIAL TRANSIENT SOLUTION       TEMPERATURE =   27.000 DEG C

                      WORST CASE ALL DEVICES

******************************************************************************



 NODE   VOLTAGE     NODE   VOLTAGE     NODE   VOLTAGE     NODE   VOLTAGE


(  VCC)   19.0000  ( -VCC)  -19.0000  ( ANOD)   19.0000  (CATOD)   18.2110      

(N28683)     .0667 (N29276)    9.4903 (N29441)    7.3301 (N29680)    9.5061     

(N29687)    7.3299 (N29705)    -.0844 (N30063)     .0060 (N30086)     .0667     

(N30135)     .0060 (N34215)    9.5095 (SENSOR)    9.4907 (X_U17A.6)-167.4E-06   

(X_U17A.7)   10.0730                  (X_U17A.8)   10.0730                      

(X_U17A.9)    0.0000                  (X_U17B.6) 20.65E-06                      

(X_U17B.7)    -.6970                  (X_U17B.8)    -.6970                      

(X_U17B.9)    0.0000                  (X_U18A.6)    -.0018                      

(X_U18A.7)    9.6150                  (X_U18A.8)    9.6150                      

(X_U18A.9)    0.0000                  (X_U18A.a)   18.9980                      

(X_U18A.b)    -.0022                  (X_U19A.6)-6.941E-06                      

(X_U19A.7)     .0712                  (X_U19A.8)     .0712                      

(X_U19A.9)    0.0000                  (X_U17A.10)   10.0620                     

(X_U17A.11)  -18.9540                 (X_U17A.12)  -18.9550                     

(X_U17A.13)   10.0410                 (X_U17A.14)   10.0410                     

(X_U17A.53)   18.0000                 (X_U17A.54)  -18.0000                     

(X_U17A.90)    2.1580                 (X_U17A.91)   70.0000                     

(X_U17A.92)  -70.0000                 (X_U17A.99)    0.0000                     

(X_U17B.10)    7.9022                 (X_U17B.11)  -18.9540                     

(X_U17B.12)  -18.9540                 (X_U17B.13)    7.8811                     

(X_U17B.14)    7.8812                 (X_U17B.53)   18.0000                     

(X_U17B.54)  -18.0000                 (X_U17B.90)   -2.2688                     

(X_U17B.91)   70.0000                 (X_U17B.92)  -70.0000                     

(X_U17B.99)    0.0000                 (X_U18A.10)   10.1140                     

(X_U18A.11)  -18.9610                 (X_U18A.12)  -18.9640                     

(X_U18A.13)   10.1000                 (X_U18A.14)   10.1010                     

(X_U18A.53)   17.5000                 (X_U18A.54)  -18.1780                     

(X_U18A.90)    2.1784                 (X_U18A.91)   40.0000                     

(X_U18A.92)  -40.0000                 (X_U18A.99)    0.0000                     

(X_U19A.10)     .4052                 (X_U19A.11)   18.5750                     

(X_U19A.12)   18.5750                 (X_U19A.53)   16.6840                     

(X_U19A.54)  -16.6840                 (X_U19A.90)     .0903                     

(X_U19A.91)   40.0000                 (X_U19A.92)  -40.0000                     

(X_U19A.99)    0.0000                 




    VOLTAGE SOURCE CURRENTS
    NAME         CURRENT

    V_V13        3.814E-02
    V_V12       -5.117E-02
    V_V14        2.190E-10
    X_U17A.vb   -1.674E-09
    X_U17A.vc    8.511E-12
    X_U17A.ve    2.995E-11
    X_U17A.vlim   2.158E-03
    X_U17A.vlp  -6.784E-11
    X_U17A.vln  -7.216E-11
    X_U17B.vb    2.065E-10
    X_U17B.vc    1.809E-11
    X_U17B.ve    2.038E-11
    X_U17B.vlim  -2.269E-03
    X_U17B.vlp  -7.227E-11
    X_U17B.vln  -6.773E-11
    X_U18A.vb   -1.823E-08
    X_U18A.vc    7.995E-12
    X_U18A.ve    3.017E-11
    X_U18A.vlim   2.178E-03
    X_U18A.vlp  -3.782E-11
    X_U18A.vln  -4.218E-11
    X_U19A.vb   -6.941E-11
    X_U19A.vc    1.662E-11
    X_U19A.ve    1.904E-11
    X_U19A.vlim   9.029E-05
    X_U19A.vlp  -3.991E-11
    X_U19A.vln  -4.009E-11

    TOTAL POWER DISSIPATION   1.70E+00  WATTS


**** 06/03/24 14:44:16 ***** PSpice 23.1.0 (6 March 2024) ***** ID# 0 ********

 ** Profile: "SCHEMATIC1-final"  [ c:\users\gh_ev\appdata\roaming\spb_data\cdssetup\workspace\projects\proiectfinalsper\proiectfinals


 ****     UPDATED MODEL PARAMETERS         TEMPERATURE =   27.000 DEG C

                      WORST CASE ALL DEVICES

******************************************************************************



Device       MODEL        PARAMETER    NEW VALUE    
R_R1         R_R1         R               1.001         (Increased)  
R_R10        R_R10        R               1.001         (Increased)  
R_R11        R_R11        R               1.001         (Increased)  
R_Rs         R_Rs         R                .999         (Decreased)  
R_R2         R_R2         R               1.001         (Increased)  
R_R3         R_R3         R                .999         (Decreased)  
R_R6         R_R6         R                .999         (Decreased)  
R_R7         R_R7         R               1.001         (Increased)  
R_R5         R_R5         R                .999         (Decreased)  
R_R4         R_R4         R               1.001         (Increased)  
R_R8         R_R8         R               1.001         (Increased)  
R_R9         R_R9         R                .999         (Decreased)  
    

**** 06/03/24 14:44:16 ***** PSpice 23.1.0 (6 March 2024) ***** ID# 0 ********

 ** Profile: "SCHEMATIC1-final"  [ c:\users\gh_ev\appdata\roaming\spb_data\cdssetup\workspace\projects\proiectfinalsper\proiectfinals


 ****     SORTED DEVIATIONS OF V(N30086)   TEMPERATURE =   27.000 DEG C

                      WORST CASE SUMMARY

******************************************************************************





Mean Deviation =     .0632
Sigma          =    0     

 RUN                    MAX DEVIATION FROM NOMINAL

WORST CASE ALL DEVICES
                         .0632  higher  at T =  200.0000E-12
                        (   1.9054E+03% of Nominal)



          JOB CONCLUDED

**** 06/03/24 14:44:16 ***** PSpice 23.1.0 (6 March 2024) ***** ID# 0 ********

 ** Profile: "SCHEMATIC1-final"  [ c:\users\gh_ev\appdata\roaming\spb_data\cdssetup\workspace\projects\proiectfinalsper\proiectfinals


 ****     JOB STATISTICS SUMMARY


******************************************************************************



  Total job time (using Solver 1)   =         .16
